25

C      -3.54634312      1.08332676      0.41688254
C      -2.60513401      0.46812667     -0.52456210
O      -2.90897621      0.43427547     -1.74762079
N      -1.35492899     -0.09639883     -0.11546285
C      -0.45800099     -0.69136829     -1.06976508
C       0.84869223      0.09077755     -1.16492346
C       1.53383323      0.10547678      0.20708931
C       2.79966454      0.87262307      0.08098715
N       3.64771869      1.04908593      1.20842259
O       3.17900267      1.39425256     -1.00438559
C      -0.18236604     -2.08301015     -0.70930522
O       0.58080687     -2.76964445     -1.42350618
O      -0.75011090     -2.66019091      0.41030626
H      -4.57819088      1.07715078      0.00637831
H      -3.54302014      0.59153449      1.42781660
H      -3.26626431      2.14093080      0.55098725
H      -1.12472917     -0.05670546      0.90321055
H      -0.92134864     -0.61373706     -2.07945956
H       1.53593234     -0.46478574     -1.83505089
H       0.69470336      1.10603140     -1.54757831
H       0.86681584      0.49994836      0.97972735
H       1.82501507     -0.94137219      0.44818949
H       3.94578950      2.03037658      1.42691132
H       3.93229839      0.23243945      1.75613682
H      -0.15085934     -2.79914356      1.23671159
